/*--------------------------------*- C++ -*----------------------------------*\
| =========                 |                                                 |
| \\      /  F ield         | OpenFOAM: The Open Source CFD Toolbox           |
|  \\    /   O peration     | Website:  https://openfoam.org                  |
|   \\  /    A nd           | Version:  9                                     |
|    \\/     M anipulation  |                                                 |
\*---------------------------------------------------------------------------*/
FoamFile
{
    format      ascii;
    class       dictionary;
    object      topoSetDict;
}
// * * * * * * * * * * * * * * * * * * * * * * * * * * * * * * * * * * * * * //

actions
(

    {
        name    tdSet;
        type    faceSet;
        action  new;
        source patchToFace;
        sourceInfo
        {
             name "inlet_top";
        }
    }
    
    {
        name    lrSet;
        type    faceSet;
        action  new;
        source patchToFace;
        sourceInfo
        {
             name "outlet_right";
        }
    }

      {
        name    tdSet;
        type    faceSet;
        action  delete;
        source  normalToFace;
        sourceInfo
        {
             normal (0 1 0);     // Vector
             cos     0.01;       // Tolerance (max cos of angle)
        }
      }

      

      {
        name    lrSet;
        type    faceSet;
        action  delete;
        source  normalToFace;
        sourceInfo
        {
             normal (1 0 0);     // Vector
             cos     0.01;       // Tolerance (max cos of angle)
        }
      }

   
);

// ************************************************************************* //
