/*--------------------------------*- C++ -*----------------------------------*\
| =========                 |                                                 |
| \\      /  F ield         | OpenFOAM: The Open Source CFD Toolbox           |
|  \\    /   O peration     | Version:  2.2.2                                 |
|   \\  /    A nd           | Web:      www.OpenFOAM.org                      |
|    \\/     M anipulation  |                                                 |
\*---------------------------------------------------------------------------*/
FoamFile
{
    version     2.0;
    format      ascii;
    class       polyBoundaryMesh;
    object      boundary;
}
// * * * * * * * * * * * * * * * * * * * * * * * * * * * * * * * * * * * * * //

6
(
    inlet_north
    {
        type            patch;
        nFaces          51;
        startFace       29340;
    }
    inlet_south
    {
        type            patch;
        nFaces          51;
        startFace       29391;
    }
    outlet_east
    {
        type            patch;
        nFaces          51;
        startFace       29442;
    }
    outlet_west
    {
        type            patch;
        nFaces          51;
        startFace       29493;
    }
    walls
    {
        type            wall;
        nFaces          480;
        startFace       29544;
    }
    frontAndBack
    {
        type            empty;
        inGroups        1(empty);
        nFaces          29682;
        startFace       30024;
    }
)

// ************************************************************************* //
