/*--------------------------------*- C++ -*----------------------------------*\
  =========                 |
| \\      /  F ield         | OpenFOAM: The Open Source CFD Toolbox           |
|  \\    /   O peration     | Version:  6.0                                   |
|   \\  /    A nd           | Website:  https://openfoam.org                  |
|    \\/     M anipulation  |                                                 |
\*---------------------------------------------------------------------------*/
FoamFile
{
    version     2.0;
    format      ascii;
    class       dictionary;
    object      blockMeshDict;
}
// * * * * * * * * * * * * * * * * * * * * * * * * * * * * * * * * * * * * * //

convertToMeters 1;

L 0.38;
W 0.115;

vertices
(
 (0 0 0)
 ($L 0 0)
 ($L $W 0)
 (0 $W 0)
 
 (0 0 1)
 ($L 0 1)
 ($L $W 1)
 (0 $W 1)

);

blocks
(
    hex (0 1 2 3 4 5 6 7) (150 100 1)  simpleGrading (1 0.2 1)    
);


edges
(

  
);

boundary
(
   
    inlet
    {
      type patch;
      faces
      (
           (0 3 7 4)
      );
    }
    
  
    outlet
    {
        type patch;
        faces
        (
           (1 2 6 5)            
        );
    }        
    
    frontAndBack
    {
        type empty;
        faces
        (
            (0 1 2 3)
            (4 5 6 7)             
        );
    }
    
    freeSurface0
    {
        type wall;
        faces
        (
            (3 2 6 7)           
        );
    }
    
    symm
    {
        type symmetryPlane;
        faces
        (
            (0 1 5 4)            
        );
    }
);

mergePatchPairs
(
);

// ************************************************************************* //
