/*--------------------------------*- C++ -*----------------------------------*\
| =========                 |                                                 |
| \\      /  F ield         | OpenFOAM: The Open Source CFD Toolbox           |
|  \\    /   O peration     | Website:  https://openfoam.org                  |
|   \\  /    A nd           | Version:  9                                     |
|    \\/     M anipulation  |                                                 |
\*---------------------------------------------------------------------------*/
FoamFile
{
    format      ascii;
    class       dictionary;
    object      blockMeshDict;
}
// * * * * * * * * * * * * * * * * * * * * * * * * * * * * * * * * * * * * * //

convertToMeters 1e-3;

vertices
(

 (0 0 0)
 (100 0 0)
 (100 50 0)
 (100 50 0)
 (100 100 0)
 (0 100 0)
 (0 50 0)
 (0 50 0)
 
 (0 0 1)
 (100 0 1)
 (100 50 1)
 (100 50 1)
 (100 100 1)
 (0 100 1)
 (0 50 1)
 (0 50 1)
 

);

blocks
(

    hex (0 1 2 7 8 9 10 15) solid0 (21 51 1) simpleGrading (1 1 1) //0
    hex (6 3 4 5 14 11 12 13) solid1 (51 51 1) simpleGrading (1 1 1) //0    
   
);

edges
(

  
);

boundary
(
   
  left0
  {
    type wall;
    faces
    (
      (0 7 15 8)           
    );
  }
  
  right0
  {
    type wall;
    faces
    (
      (1 2 10 9)           
    );
  }
  
  down0
  {
    type wall;
    faces
    (
      (0 1 9 8)           
    );
  }
  
  inter0
  {
    type regionCoupledAMI;
    neighbourPatch  inter1;
    neighbourRegion solid1;
    faces
    (
      (7 2 10 15)           
    );
  }
  
  left1
  {
    type wall;
    faces
    (
      (6 5 13 14)           
    );
  }
  
  right1
  {
    type wall;
    faces
    (
      (3 4 12 11)           
    );
  }
  
  top1
  {
    type wall;
    faces
    (
      (5 4 12 13)           
    );
  }
  
  inter1
  {
    type regionCoupledAMI;
    neighbourPatch  inter0;
    neighbourRegion solid0;
    faces
    (
      (6 3 11 14)           
    );
  }
   
  
  frontBack
  {
    type empty;
    faces
    (
      (0 1 2 7)
      (6 3 4 5)
      (8 9 10 15)
      (14 11 12 13)           
    );
  }
  
);

mergePatchPairs
(
);

// ************************************************************************* //
