/*--------------------------------*- C++ -*----------------------------------*\
| =========                 |                                                 |
| \\      /  F ield         | OpenFOAM: The Open Source CFD Toolbox           |
|  \\    /   O peration     | Version:  2.2.2                                 |
|   \\  /    A nd           | Web:      www.OpenFOAM.org                      |
|    \\/     M anipulation  |                                                 |
\*---------------------------------------------------------------------------*/
FoamFile
{
    version     2.0;
    format      ascii;
    class       polyBoundaryMesh;
    object      boundary;
}
// * * * * * * * * * * * * * * * * * * * * * * * * * * * * * * * * * * * * * //

6
(
    inlet
    {
        type            patch;
        nFaces          40;
        startFace       24579;
    }
    walls
    {
        type            wall;
        nFaces          172;
        startFace       24619;
    }
    cylinder
    {
        type            wall;
        nFaces          189;
        startFace       24791;
    }
    outlet
    {
        type            patch;
        nFaces          60;
        startFace       24980;
    }
    frontAndBack
    {
        type            empty;
        inGroups        1(empty);
        nFaces          24894;
        startFace       25040;
    }
    defaultFaces
    {
        type            empty;
        inGroups        1(empty);
        nFaces          169;
        startFace       49934;
    }
)

// ************************************************************************* //
