/*--------------------------------*- C++ -*----------------------------------*\
| =========                 |                                                 |
| \\      /  F ield         | OpenFOAM: The Open Source CFD Toolbox           |
|  \\    /   O peration     | Version:  2.2.2                                 |
|   \\  /    A nd           | Web:      www.OpenFOAM.org                      |
|    \\/     M anipulation  |                                                 |
\*---------------------------------------------------------------------------*/
FoamFile
{
    version     2.0;
    format      ascii;
    class       volVectorField;
    object      U;
}
// * * * * * * * * * * * * * * * * * * * * * * * * * * * * * * * * * * * * * //

dimensions      [0 1 -1 0 0 0 0];

internalField   uniform (0 0 0);

boundaryField
{
    inletWest
    {
	type            zeroGradient;
    }
    
    inletNorth
    {
	type            zeroGradient;
    }
    
    outlet
    {
	type            zeroGradient;    
    }
    
    symmetry
    {
	type            symmetryPlane;    
    }
    
    walls
    {
	type            slipSmoluchowski;
	elecMobility    4e-8;
	value           uniform (0 0 0);    
    }
}

// ************************************************************************* //
