/*--------------------------------*- C++ -*----------------------------------*\
| =========                 |                                                 |
| \\      /  F ield         | OpenFOAM: The Open Source CFD Toolbox           |
|  \\    /   O peration     | Website:  https://openfoam.org                  |
|   \\  /    A nd           | Version:  9                                     |
|    \\/     M anipulation  |                                                 |
\*---------------------------------------------------------------------------*/
FoamFile
{
    format      ascii;
    class       dictionary;
    object      constitutiveProperties;
}
// * * * * * * * * * * * * * * * * * * * * * * * * * * * * * * * * * * * * * //
 
phases (water air);

water
{
      
       parameters
       {		        
         type             Oldroyd-BLog;
         rho              rho [ 1 -3 0 0 0 0 0 ] 0.03;
         etaS             etaS [1 -1 -1 0 0 0 0] 0.11111;
         etaP             etaP [1 -1 -1 0 0 0 0] 0.88889;  
         lambda           lambda [0 0 1 0 0 0 0] 2.;
         
         stabilization    coupling;
       }      
}

air
{
     parameters
       {		        
         type            Newtonian;
         rho             rho [1 -3 0 0 0 0 0] 1.5e-4;
         eta             eta [1 -1 -1 0 0 0 0] 1e-3;
       }
}
 
sigma           sigma [ 1 0 -2 0 0 0 0 ] 0.;

// ************************************************************************* //
