/*--------------------------------*- C++ -*----------------------------------*\
  =========                 |
  \\      /  F ield         | OpenFOAM: The Open Source CFD Toolbox
   \\    /   O peration     | Website:  https://openfoam.org
    \\  /    A nd           | Version:  6
     \\/     M anipulation  |
\*---------------------------------------------------------------------------*/
FoamFile
{
    version     2.0;
    format      ascii;
    class       dictionary;
    location    "system/fluid";
    object      fvSolution;
}
// * * * * * * * * * * * * * * * * * * * * * * * * * * * * * * * * * * * * * //
 
solvers
{
    "(T.*)"
    {
        solver           PBiCG;
        preconditioner   DILU;
        tolerance        1e-10;
        relTol           0.;
        minIter          0;
        maxIter          800;
        
    }
    
    "(U)"
    {
        solver           PBiCG;
        preconditioner   DILU;
        tolerance        1e-10;
        relTol           0.;
        minIter          0;
        maxIter          800;
        
    }
    
    "(p_rgh)"
    {
        solver           PCG;
        preconditioner   DIC;
        tolerance        1e-10;
        relTol           0.;
        minIter          0;
        maxIter          800;
        
    }
}

PIMPLE
{
  frozenFlow true; 
  
  nInIter  1;
  nNonOrthogonalCorrectors 0;
}

relaxationFactors
{
    
}

// ************************************************************************* //
