/*--------------------------------*- C++ -*----------------------------------*\
| =========                 |                                                 |
| \\      /  F ield         | foam-extend: Open Source CFD                    |
|  \\    /   O peration     | Version:     3.2                                |
|   \\  /    A nd           | Web:         http://www.extend-project.de       |
|    \\/     M anipulation  |                                                 |
\*---------------------------------------------------------------------------*/
FoamFile
{
    version     2.0;
    format      ascii;
    class       dictionary;
    object      blockMeshDict;
}
// * * * * * * * * * * * * * * * * * * * * * * * * * * * * * * * * * * * * * //

convertToMeters 0.06;

vertices
(
    (0 1 0) 
    (0 0 0) 
    (0.999390827 0 -0.0348994967) 
    (0.999390827 1 -0.0348994967)
    (0.999390827 0 0.0348994967) 
    (0.999390827 1 0.0348994967)
);

blocks
(
  hex (1 2 3 0 1 4 5 0) (120 120 1) simpleGrading (1 1 1)
);

edges
(
);

boundary
(
    plate
     {
        type patch;
        faces
        (
            (1 2 4 1)
        );
    }
    atmosphere
    {
        type patch;
        faces
        (
            (0 3 5 0)
            (3 2 4 5)
        );
    }
    axis
    {
        type empty;
        faces
        (
            (0 1 1 0)           
        );
    }
    wFront
    {
        type wedge;
        faces
        (
            (0 1 4 5)           
        );
    }
    
    wBack
    {
        type wedge;
        faces
        (
            (0 1 2 3)          
        );
    }
);

mergePatchPairs
(
);

// ************************************************************************* //
