/*--------------------------------*- C++ -*----------------------------------*\
| =========                 |                                                 |
| \\      /  F ield         | OpenFOAM: The Open Source CFD Toolbox           |
|  \\    /   O peration     | Website:  https://openfoam.org                  |
|   \\  /    A nd           | Version:  9                                     |
|    \\/     M anipulation  |                                                 |
\*---------------------------------------------------------------------------*/
FoamFile
{
    format      ascii;
    class       dictionary;
    object      particleProperties;
}
// * * * * * * * * * * * * * * * * * * * * * * * * * * * * * * * * * * * * * //

externalFlow
{
    writeFields     true;
    frozenFlow      false;
    tethered        false;
    interpolation   Analytical;
    gradU           ( 0 0 0 0 0 0 0 0 0 );
    pushBackCmp     ( 1 1 1 );
    pushBackFreq    1;
}

outputOptions
{
    writeStats      true;
    outputStatsInterval 100;
    writeVTK        true;
}

exclusionVolumeProperties
{
    activeExclusionVolume true;
    activeWallRepulsion false;
    repulsiveDistance 1e-07;
}

HIProperties
{
    activeHI        true;
}

electrophoresis
{
    active          false;
    mobility        5.95767e-10;
}

springModelProperties
{
    springModel     MarkoSiggia;
    timeScheme      semiImplicit;
    maxIter         20;
    relTol          1e-06;
    tresholdF       0.9;
    cutOffStretch   0.99;
    solver          QR;
}

// ************************************************************************* //
