/*--------------------------------*- C++ -*----------------------------------*\
| =========                 |                                                 |
| \\      /  F ield         | OpenFOAM: The Open Source CFD Toolbox           |
|  \\    /   O peration     | Website:  https://openfoam.org                  |
|   \\  /    A nd           | Version:  9                                     |
|    \\/     M anipulation  |                                                 |
\*---------------------------------------------------------------------------*/
FoamFile
{
    format      ascii;
    class       volScalarField;
    object      h;
}
// * * * * * * * * * * * * * * * * * * * * * * * * * * * * * * * * * * * * * //

dimensions          [0 1 0 0 0 0 0];

internalField       uniform 0.001;

boundaryField
{
    freeSurface0
    {
        type fixedValue;
        value uniform 1e-16;
    }

    outlet
    {
          type zeroGradient;
    }

    inlet
    {
        type fixedValue;
        value uniform 0.001;
    }
 
    
    frontAndBack
    {
        type empty;
    }
    
    symm
    {
        type            symmetryPlane; 
    }
}

// * * * * * * * * * * * * * * * * * * * * * * * * * * * * * * * * * * * * * //
