/*--------------------------------*- C++ -*----------------------------------*\
| =========                 |                                                 |
| \\      /  F ield         | OpenFOAM: The Open Source CFD Toolbox           |
|  \\    /   O peration     | Website:  https://openfoam.org                  |
|   \\  /    A nd           | Version:  9                                     |
|    \\/     M anipulation  |                                                 |
\*---------------------------------------------------------------------------*/
FoamFile
{
    format      ascii;
    class       volVectorField;
    object      U;
}
// * * * * * * * * * * * * * * * * * * * * * * * * * * * * * * * * * * * * * //

dimensions          [0 1 -1 0 0 0 0];

internalField       uniform (0.009 0 0);

boundaryField
{   
    inlet
    {
        type fixedValue;
        value uniform (0.009 0 0);
    }
    
    outlet
    {  
        type            rollVelocity;
        
        hT              10;
        uStart          0.009;
        uEnd            0.17;
        
        // Dummy
        value           uniform ($uStart 0 0);  
    }

    freeSurface0
    {
        type zeroGradient;
    }   
 
    frontAndBack
    {
        type empty;
    }
    
    symm
    {
        type symmetryPlane;
    }
}

// * * * * * * * * * * * * * * * * * * * * * * * * * * * * * * * * * * * * * //
