/*--------------------------------*- C++ -*----------------------------------*\
| =========                 |                                                 |
| \\      /  F ield         | OpenFOAM: The Open Source CFD Toolbox           |
|  \\    /   O peration     | Version:  2.2.2                                 |
|   \\  /    A nd           | Web:      www.OpenFOAM.org                      |
|    \\/     M anipulation  |                                                 |
\*---------------------------------------------------------------------------*/
FoamFile
{
    version     2.0;
    format      ascii;
    class       dictionary;
    object      electricProperties;
}
// * * * * * * * * * * * * * * * * * * * * * * * * * * * * * * * * * * * * * //
 
parameters
{
        type             Ohmic;      
  
        relPerm          relPerm [ 0 0 0 0 0 0 0 ] 78.3;  
        
        species
        (        
           cations
           {        
              z                 z [ 0 0 0 0 0 0 0 ] 1;      
              D                 D [ 0 2 -1 0 0 0 0 ] 1e-9;          
           }
           
           anions
           {  
              z                 z [ 0 0 0 0 0 0 0 ] -1;         
              D                 D [ 0 2 -1 0 0 0 0 ] 1e-9;         
           }               
        ); 
}

// ************************************************************************* //
