/*--------------------------------*- C++ -*----------------------------------*\
| =========                 |                                                 |
| \\      /  F ield         | OpenFOAM: The Open Source CFD Toolbox           |
|  \\    /   O peration     | Version:  2.2.2                                 |
|   \\  /    A nd           | Web:      www.OpenFOAM.org                      |
|    \\/     M anipulation  |                                                 |
\*---------------------------------------------------------------------------*/
FoamFile
{
    version     2.0;
    format      ascii;
    class       dictionary;
    object      fvSchemes;
}
// * * * * * * * * * * * * * * * * * * * * * * * * * * * * * * * * * * * * * //

ddtSchemes
{
    default         Euler;
}

gradSchemes
{
    default         Gauss linear;
}

divSchemes
{
    default                  none;
    div(Sum(tau))            Gauss linear;  
    div(rho*phi,U)           Gauss limitedLinearV 1;    
    div(phi,alpha)           Gauss vanLeer;
    div(phirb,alpha)         Gauss interfaceCompression;
    div(eta*alpha*dev2(T(gradU)))  Gauss linear;      
}

laplacianSchemes
{
    default                             Gauss linear corrected;         
}

interpolationSchemes
{
    default        linear;      
}

snGradSchemes
{
    default         corrected;
}

fluxRequired
{
    default         no;
    p_rgh;
    pcorr;
    alpha1;
}

// ************************************************************************* //
