/*--------------------------------*- C++ -*----------------------------------*\
| =========                 |                                                 |
| \\      /  F ield         | OpenFOAM: The Open Source CFD Toolbox           |
|  \\    /   O peration     | Version:  2.2.2                                 |
|   \\  /    A nd           | Web:      www.OpenFOAM.org                      |
|    \\/     M anipulation  |                                                 |
\*---------------------------------------------------------------------------*/
FoamFile
{
    version     2.0;
    format      ascii;
    class       dictionary;
    object      constitutiveProperties;
}
// * * * * * * * * * * * * * * * * * * * * * * * * * * * * * * * * * * * * * //
 
phase1
{
      parameters
       {		        
         type            Newtonian;
         rho             rho [1 -3 0 0 0 0 0] 1000;
         eta             eta [1 -1 -1 0 0 0 0] 0.001;  
       }
}

phase2
{
     parameters
       {		        
         type            Newtonian;
         rho             rho [1 -3 0 0 0 0 0] 1;
         eta             eta [1 -1 -1 0 0 0 0] 1.48e-5;  
       }
}

passiveScalarProperties
{

                solvePassiveScalar   off;
                D                    D [ 0 2 -1 0 0 0 0 ] 1e-9; 
}

sigma           sigma [ 1 0 -2 0 0 0 0 ] 0.07;

// ************************************************************************* //
