/*--------------------------------*- C++ -*----------------------------------*\
| =========                 |                                                 |
| \\      /  F ield         | foam-extend: Open Source CFD                    |
|  \\    /   O peration     | Version:     4.0                                |
|   \\  /    A nd           | Web:         http://www.extend-project.de       |
|    \\/     M anipulation  |                                                 |
\*---------------------------------------------------------------------------*/
FoamFile
{
    version     2.0;
    format      ascii;
    class       volSymmTensorField;
    object      B;
}
// * * * * * * * * * * * * * * * * * * * * * * * * * * * * * * * * * * * * * //

dimensions      [0 0 0 0 0 0 0];

internalField   uniform (0.56694671 0 0 0.56694671 0 0.56694671);

boundaryField
{
    inlet
    {
	type            fixedValue;
	value           uniform (0.56694671 0 0 0.56694671 0 0.56694671);
    }
   
    walls
    {
	type            zeroGradient;       
    }

    outlet
    {
	type            zeroGradient;        
    }

    frontAndBack
    {
	type            empty;     
    }
}

// ************************************************************************* //
