/*--------------------------------*- C++ -*----------------------------------*\
| =========                 |                                                 |
| \\      /  F ield         | OpenFOAM: The Open Source CFD Toolbox           |
|  \\    /   O peration     | Version:  4.0                                   |
|   \\  /    A nd           | Web:      www.OpenFOAM.org                      |
|    \\/     M anipulation  |                                                 |
\*---------------------------------------------------------------------------*/
FoamFile
{
    version     2.0;
    format      ascii;
    class       dictionary;
    object      constitutiveProperties;
}
// * * * * * * * * * * * * * * * * * * * * * * * * * * * * * * * * * * * * * //

parameters
{                

        type multiMode;

        models
        (
            M1
            {
                type             FENE-PLog;

                rho              rho [1 -3 0 0 0 0 0] 1.;
                etaS             etaS [1 -1 -1 0 0 0 0] .005;
                etaP             etaP [1 -1 -1 0 0 0 0] .99;             
                lambda           lambda [0 0 1 0 0 0 0] .1;
                L2               L2 [0 0 0 0 0 0 0] 10;

                uTauCoupling     true;  
            }   
            M2
            {
                type             Oldroyd-BLog;

                rho              rho [1 -3 0 0 0 0 0] 1.;
                etaS             etaS [1 -1 -1 0 0 0 0] .005;
                etaP             etaP [1 -1 -1 0 0 0 0] .99;             
                lambda           lambda [0 0 1 0 0 0 0] .1;

                uTauCoupling     true;  
            } 
        );            
}

passiveScalarProperties
{
                solvePassiveScalar   no;
                D                    D [ 0 2 -1 0 0 0 0 ] 1e-9; 
}

// ************************************************************************* //
