/*--------------------------------*- C++ -*----------------------------------*\
| =========                 |                                                 |
| \\      /  F ield         | OpenFOAM: The Open Source CFD Toolbox           |
|  \\    /   O peration     | Website:  https://openfoam.org                  |
|   \\  /    A nd           | Version:  9                                     |
|    \\/     M anipulation  |                                                 |
\*---------------------------------------------------------------------------*/
FoamFile
{
    format      ascii;
    class       volSymmTensorField;
    object      B;
}
// * * * * * * * * * * * * * * * * * * * * * * * * * * * * * * * * * * * * * //

dimensions      [0 0 0 0 0 0 0];

internalField   uniform (0.56694671 0 0 0.56694671 0 0.56694671);

boundaryField
{
    inlet
    {
	type            fixedValue;
	value           uniform (0.56694671 0 0 0.56694671 0 0.56694671);
    }
   
    walls
    {
	type            zeroGradient;       
    }

    outlet
    {
	type            zeroGradient;        
    }

    frontAndBack
    {
	type            empty;     
    }
}

// ************************************************************************* //
