/*--------------------------------*- C++ -*----------------------------------*\
| =========                 |                                                 |
| \\      /  F ield         | OpenFOAM: The Open Source CFD Toolbox           |
|  \\    /   O peration     | Website:  https://openfoam.org                  |
|   \\  /    A nd           | Version:  9                                     |
|    \\/     M anipulation  |                                                 |
\*---------------------------------------------------------------------------*/
FoamFile
{
    format      ascii;
    class       dictionary;
    object      blockMeshDict;
}
// * * * * * * * * * * * * * * * * * * * * * * * * * * * * * * * * * * * * * //

convertToMeters 1;

L 0.5;
W 0.5;
Wm -0.5; // -W

vertices
(

 (0 $Wm 0)
 ($L $Wm 0)
 ($L $W 0)
 (0 $W 0)
 
 (0 $Wm 1)
 ($L $Wm 1)
 ($L $W 1)
 (0 $W 1)

);

blocks
(
    hex (0 1 2 3 4 5 6 7) (70 200 1) 
    simpleGrading
    (
        1                   
        (
            (0.5 0.5 5)    
            (0.5 0.5 0.2)             
        )
        1 
    )  
);

edges
(

  
);

boundary
(
   
    inlet
    {
      type patch;
      faces
      (
           (0 3 7 4)
      );
    }
    
  
    outlet
    {
        type patch;
        faces
        (
           (1 2 6 5)            
        );
    }        
    
    frontAndBack
    {
        type empty;
        faces
        (
            (0 1 2 3)
            (4 5 6 7)             
        );
    }
    
    freeSurface0
    {
        type wall;
        faces
        (
            (3 2 6 7)           
        );
    }
    
    freeSurface1
    {
        type wall;
        faces
        (
            (0 1 5 4)            
        );
    }
);

mergePatchPairs
(
);

// ************************************************************************* //
