/*--------------------------------*- C++ -*----------------------------------*\
| =========                 |                                                 |
| \\      /  F ield         | OpenFOAM: The Open Source CFD Toolbox           |
|  \\    /   O peration     | Website:  https://openfoam.org                  |
|   \\  /    A nd           | Version:  9                                     |
|    \\/     M anipulation  |                                                 |
\*---------------------------------------------------------------------------*/
FoamFile
{
    format      ascii;
    class       volScalarField;
    object      alpha1;
}
// * * * * * * * * * * * * * * * * * * * * * * * * * * * * * * * * * * * * * //

dimensions      [0 0 0 0 0 0 0];

internalField   uniform 0;

boundaryField
{
    inlet
    {
       type            fixedValue;
       value           uniform 1;
    }
    
    outlet
    {
       type            zeroGradient;
    }
    
    wallIn
    {
       type            zeroGradient;
    }
    
    wallOut
    {
       type            fixedValue;
       value           uniform 0;
    }
    
    atmosphere
    {
       type            zeroGradient;
    }
    
    symmetry
    {
       type            symmetryPlane;
    }
}
 
