/*--------------------------------*- C++ -*----------------------------------*\
| =========                 |                                                 |
| \\      /  F ield         | OpenFOAM: The Open Source CFD Toolbox           |
|  \\    /   O peration     | Version:  2.2.2                                 |
|   \\  /    A nd           | Web:      www.OpenFOAM.org                      |
|    \\/     M anipulation  |                                                 |
\*---------------------------------------------------------------------------*/
FoamFile
{
    version     2.0;
    format      ascii;
    class       polyBoundaryMesh;
    object      boundary;
}
// * * * * * * * * * * * * * * * * * * * * * * * * * * * * * * * * * * * * * //

7
(
    inlet_top
    {
        type            patch;
        nFaces          80;
        startFace       52520;
    }
    outlet_right
    {
        type            patch;
        nFaces          80;
        startFace       52600;
    }
    base
    {
        type            empty;
        inGroups        1(empty);
        nFaces          26500;
        startFace       52680;
    }
    top
    {
        type            empty;
        inGroups        1(empty);
        nFaces          26500;
        startFace       79180;
    }
    walls
    {
        type            wall;
        nFaces          640;
        startFace       105680;
    }
    inlet_down
    {
        type            patch;
        nFaces          80;
        startFace       106320;
    }
    inlet_left
    {
        type            patch;
        nFaces          80;
        startFace       106400;
    }
)

// ************************************************************************* //
