/*--------------------------------*- C++ -*----------------------------------*\
  =========                 |
| \\      /  F ield         | OpenFOAM: The Open Source CFD Toolbox           |
|  \\    /   O peration     | Version:  6.0                                   |
|   \\  /    A nd           | Website:  https://openfoam.org                  |
|    \\/     M anipulation  |                                                 |
\*---------------------------------------------------------------------------*/
FoamFile
{
    version     2.0;
    format      ascii;
    class       volSymmTensorField;
    object      B;
}
// * * * * * * * * * * * * * * * * * * * * * * * * * * * * * * * * * * * * * //

dimensions      [0 0 0 0 0 0 0];

internalField   uniform (0.56694671 0 0 0.56694671 0 0.56694671);

boundaryField
{
    inlet
    {
	type            fixedValue;
	value           uniform (0.56694671 0 0 0.56694671 0 0.56694671);
    }
   
    walls
    {
	type            zeroGradient;       
    }

    outlet
    {
	type            zeroGradient;        
    }

    frontAndBack
    {
	type            empty;     
    }
}

// ************************************************************************* //
