/*--------------------------------*- C++ -*----------------------------------*\
  =========                 |
| \\      /  F ield         | OpenFOAM: The Open Source CFD Toolbox           |
|  \\    /   O peration     | Version:  6.0                                   |
|   \\  /    A nd           | Website:  https://openfoam.org                  |
|    \\/     M anipulation  |                                                 |
\*---------------------------------------------------------------------------*/
FoamFile
{
    version     2.0;
    format      ascii;
    class       dictionary;
    object      fvSchemes;
}
// * * * * * * * * * * * * * * * * * * * * * * * * * * * * * * * * * * * * * //

ddtSchemes
{
    default         Euler;
}

gradSchemes
{
    default         Gauss linear;
}

divSchemes
{
    default         none;
    
    div(Sum(tau))            Gauss linear; 
    div(eta*alpha*dev2(T(gradU))) Gauss linear;
    
    div(rhoPhi,U)            GaussDefCmpw cubista;
    
    div(phi,alpha)           Gauss vanLeer01;
    div(phirb,alpha)         Gauss interfaceCompression;
}

laplacianSchemes
{
    default                             Gauss linear corrected;
}

interpolationSchemes
{
    default        linear;      
}

snGradSchemes
{
    default         corrected;
}

fluxRequired
{
    default         no;
    p_rgh;
    pcorr;
    alpha1;
}

// ************************************************************************* //
