/*--------------------------------*- C++ -*----------------------------------*\
| =========                 |                                                 |
| \\      /  F ield         | foam-extend: Open Source CFD                    |
|  \\    /   O peration     | Version:     4.0                                |
|   \\  /    A nd           | Web:         http://www.extend-project.de       |
|    \\/     M anipulation  |                                                 |
\*---------------------------------------------------------------------------*/
FoamFile
{
    version     2.0;
    format      ascii;
    class       dictionary;
    object      sampleDict;
}
// * * * * * * * * * * * * * * * * * * * * * * * * * * * * * * * * * * * * //

setFormat raw;

surfaceFormat raw;

formatOptions
{
    ensight
    {
        format  ascii;
    }
}

interpolationScheme cellPointFace;

fields
(
   U  
   tau
   
);

sets
(

    lineVert
    {
        type        face;
        axis        y;

        start       ( 0.002 0 0 );
        end         ( 0.002 0.0001 0 );
       
    }
 
);

surfaces
(

);

