/*--------------------------------*- C++ -*----------------------------------*\
| =========                 |                                                 |
| \\      /  F ield         | OpenFOAM: The Open Source CFD Toolbox           |
|  \\    /   O peration     | Website:  https://openfoam.org                  |
|   \\  /    A nd           | Version:  9                                     |
|    \\/     M anipulation  |                                                 |
\*---------------------------------------------------------------------------*/
FoamFile
{
    format      ascii;
    class       dictionary;
    object      constitutiveProperties;
}
// * * * * * * * * * * * * * * * * * * * * * * * * * * * * * * * * * * * * * //

g g [0 1 -2 0 0 0 0] (0 0 0);

filmProperties
{
  isTanZeroTraction true; 
  isThermo false;
}
   
parameters
{                
        type multiMode;

        models
        (
            M1
            {
                type             PTT;

                rho              rho [1 -3 0 0 0 0 0] 1.;
                etaS             etaS [1 -1 -1 0 0 0 0] 0.1;
                etaP             etaP [1 -1 -1 0 0 0 0] 0.9;             
                lambda           lambda [0 0 1 0 0 0 0] 0.1;
                epsilon          epsilon [0 0 0 0 0 0 0] 0.2;
                zeta             zeta [0 0 0 0 0 0 0] 0.1; 
                
                destructionFunctionType  exponential;

                stabilization    coupling;  // place-holder      
            }   
            M2
            {
                type             PTT;

                rho              rho [1 -3 0 0 0 0 0] 1.;
                etaS             etaS [1 -1 -1 0 0 0 0] 0.5;
                etaP             etaP [1 -1 -1 0 0 0 0] 0.5;             
                lambda           lambda [0 0 1 0 0 0 0] 0.05;
                epsilon          epsilon [0 0 0 0 0 0 0] 0.1;
                zeta             zeta [0 0 0 0 0 0 0] 0.; 
                
                destructionFunctionType  exponential;

                stabilization    coupling;  // place-holder      
            } 
                
        );     

        stabilization    coupling;                           
}

// ************************************************************************* //

