/*--------------------------------*- C++ -*----------------------------------*\
  =========                 |
| \\      /  F ield         | OpenFOAM: The Open Source CFD Toolbox           |
|  \\    /   O peration     | Version:  7.0                                   |
|   \\  /    A nd           | Website:  https://openfoam.org                  |
|    \\/     M anipulation  |                                                 |
\*---------------------------------------------------------------------------*/
FoamFile
{
    version     2.0;
    format      ascii;
    class       dictionary;
    object      blockMeshDict;
}
// * * * * * * * * * * * * * * * * * * * * * * * * * * * * * * * * * * * * * //

convertToMeters 2e-04;

vertices
(

  (-10 -1 -1)
  (-1 -1 -1)
  (-1 1 -1)
  (-10 1 -1)
  (-1 -10 -1)
  (1 -10 -1)
  (1 -1 -1)
  (10 -1 -1)
  (10 1 -1)
  (1 1 -1)
  (1 10 -1)
  (-1 10 -1) //11
  (-10 -1 1)
  (-1 -1 1)
  (-1 1 1)
  (-10 1 1)
  (-1 -10 1)
  (1 -10 1)
  (1 -1 1)
  (10 -1 1)
  (10 1 1)
  (1 1 1)
  (1 10 1)
  (-1 10 1) //23 
  (-10 0 -1)//24
  (-1 0 -1)
  (0 1 -1)
  (0 10 -1)
  (1 0 -1)
  (10 0 -1)
  (0 -1 -1)
  (0 -10 -1) //31
  (-10 0 1)//32
  (-1 0 1)
  (0 1 1)
  (0 10 1)
  (1 0 1)
  (10 0 1)
  (0 -1 1)
  (0 -10 1) //39
  (0 0 -1) //40
  (0 0 1) //41
  
 

);

blocks
(

    hex (0 1 25 24 12 13 33 32) (79 14 1) simpleGrading (.5 1 1) //0    
    hex (24 25 2 3 32 33 14 15) (79 14 1) simpleGrading (.5 1 1) //1

    hex (2 26 27 11 14 34 35 23) (14 79 1) simpleGrading (1 2 1) //2
    hex (26 9 10 27 34 21 22 35) (14 79 1) simpleGrading (1 2 1) //3

    hex (28 29 8 9 36 37 20 21) (79 14 1) simpleGrading (2 1 1) //4
    hex (6 7 29 28 18 19 37 36) (79 14 1) simpleGrading (2 1 1) //5
    
    hex (31 5 6 30 39 17 18 38) (14 79 1) simpleGrading (1 .5 1) //6
    hex (4 31 30 1 16 39 38 13) (14 79 1) simpleGrading (1 .5 1) //7
    
    hex (25 40 26 2 33 41 34 14) (14 14 1) simpleGrading (1 1 1) //8
    hex (1 30 40 25 13 38 41 33) (14 14 1) simpleGrading (1 1 1) //9
    hex (30 6 28 40 38 18 36 41) (14 14 1) simpleGrading (1 1 1) //10
    hex (40 28 9 26 41 36 21 34) (14 14 1) simpleGrading (1 1 1) //11

 
    
);

edges
(

 
);

boundary
(
    
     inlet_north
     {
      type patch;
      faces
      (
            (11 27 35 23)
            (27 10 22 35)
            
        );
    }
    
    inlet_south
    {
        type patch;
        faces
        (
            (4 31 39 16)
            (31 5 17 39)
            
        );
    }
    
    outlet_east
    {
        type patch;
        faces
        (
            (7 29 37 19)
            (29 8 20 37)
            
        );
    }     
    
    outlet_west
    {
        type patch;
        faces
        (
            (0 24 32 12)
            (24 3 15 32)
            
        );
    }
    
    frontAndBack
    {
        type empty;
        faces
        (
            (0 1 25 24)
            (24 25 2 3)
            (4 31 30 1)
            (1 30 40 25)
            (25 40 26 2)
            (2 26 27 11)
            (31 5 6 30)
            (30 6 28 40)
            (40 28 9 26)
            (26 9 10 27)
            (6 7 29 28)
            (28 29 8 9)
            (12 13 33 32)
            (32 33 14 15)
            (16 39 38 13)
            (13 38 41 33)
            (33 41 34 14)
            (14 34 35 23)
            (39 17 18 38)
            (38 18 36 41)
            (41 36 21 34)
            (34 21 22 35)
            (18 19 37 36)
            (36 37 20 21)
            
        );
    }
    
    walls
    {
        type wall;
        faces
        (
            (3 2 14 15)
            (2 11 23 14)
            (10 9 21 22)
            (9 8 20 21)
            (7 6 18 19)
            (6 5 17 18)
            (1 4 16 13)
            (0 1 13 12)
                     
        );
    }

);

mergePatchPairs
(
);

// ************************************************************************* //
