/*--------------------------------*- C++ -*----------------------------------*\
| =========                 |                                                 |
| \\      /  F ield         | OpenFOAM: The Open Source CFD Toolbox           |
|  \\    /   O peration     | Website:  https://openfoam.org                  |
|   \\  /    A nd           | Version:  9                                     |
|    \\/     M anipulation  |                                                 |
\*---------------------------------------------------------------------------*/
FoamFile
{
    format      ascii;
    class       volVectorField;
    object      U;
}
// * * * * * * * * * * * * * * * * * * * * * * * * * * * * * * * * * * * * * //

dimensions      [ 0 1 -1 0 0 0 0 ];

internalField   uniform (0.01 0 0);

boundaryField
{
    
    p_inlet
    {
        type            fixedValue;
        value           uniform (0.01 0 0);
    }
    
    p_outlet
    {
        type            zeroGradient;
    }
    
    p_down
    {
        type            fixedValue;
        value           uniform (0.01 0 0);
    }
      
    inter.polymer
    {
        type            fixedValue;
        value           uniform (0.01 0 0);
    }
    
    "(bottom|top)"  
    {
        type             empty;
    }
    
    
}

// ************************************************************************* //
