/*--------------------------------*- C++ -*----------------------------------*\
| =========                 |                                                 |
| \\      /  F ield         | OpenFOAM: The Open Source CFD Toolbox           |
|  \\    /   O peration     | Version:  2.2.2                                 |
|   \\  /    A nd           | Web:      www.OpenFOAM.org                      |
|    \\/     M anipulation  |                                                 |
\*---------------------------------------------------------------------------*/
FoamFile
{
    version     2.0;
    format      ascii;
    class       polyBoundaryMesh;
    object      boundary;
}
// * * * * * * * * * * * * * * * * * * * * * * * * * * * * * * * * * * * * * //

5
(
    inlet
    {
        type            cyclic;
        inGroups        1(cyclic);
        nFaces          90;
        startFace       85830;
        matchTolerance  0.0001;
        transform       unknown;
        neighbourPatch  outlet;
    }
    reservoir
    {
        type            wall;
        nFaces          480;
        startFace       85920;
    }
    membrane
    {
        type            wall;
        nFaces          480;
        startFace       86400;
    }
    outlet
    {
        type            cyclic;
        inGroups        1(cyclic);
        nFaces          90;
        startFace       86880;
        matchTolerance  0.0001;
        transform       unknown;
        neighbourPatch  inlet;
    }
    frontAndBack
    {
        type            empty;
        inGroups        1(empty);
        nFaces          86400;
        startFace       86970;
    }
)

// ************************************************************************* //
