/*--------------------------------*- C++ -*----------------------------------*\
  =========                 |
| \\      /  F ield         | OpenFOAM: The Open Source CFD Toolbox           |
|  \\    /   O peration     | Version:  6.0                                   |
|   \\  /    A nd           | Website:  https://openfoam.org                  |
|    \\/     M anipulation  |                                                 |
\*---------------------------------------------------------------------------*/
FoamFile
{
    version     2.0;
    format      ascii;
    class       dictionary;
    object      constitutiveProperties;
}
// * * * * * * * * * * * * * * * * * * * * * * * * * * * * * * * * * * * * * //

g g [0 1 -2 0 0 0 0] (0 0 0);

filmProperties
{
  isTanZeroTraction true; 
  isThermo false;
}
   
parameters
{                
                type             Oldroyd-B;

                rho              rho [1 -3 0 0 0 0 0] 1.;
                etaS             etaS [1 -1 -1 0 0 0 0] 0;
                etaP             etaP [1 -1 -1 0 0 0 0] 1.;                 
                lambda           lambda [0 0 1 0 0 0 0] 0.1;  

                stabilization    coupling;                           
}

// ************************************************************************* //

