/*--------------------------------*- C++ -*----------------------------------*\
| =========                 |                                                 |
| \\      /  F ield         | foam-extend: Open Source CFD                    |
|  \\    /   O peration     | Version:     4.0                                |
|   \\  /    A nd           | Web:         http://www.extend-project.de       |
|    \\/     M anipulation  |                                                 |
\*---------------------------------------------------------------------------*/
FoamFile
{
    version     2.0;
    format      ascii;
    class       dictionary;
    object      controlDict;
}
// * * * * * * * * * * * * * * * * * * * * * * * * * * * * * * * * * * * * * //

application     rheoEFoam;

startFrom       startTime;

startTime       0;

stopAt          endTime;

endTime         0.15;

deltaT          2e-5;  

writeControl    runTime;

writeInterval   0.03;

purgeWrite      0;

writeFormat     ascii;

writePrecision  12;

writeCompression compressed;

timeFormat      general;

timePrecision   10;

graphFormat     raw;

runTimeModifiable yes;

adjustTimeStep off;

maxCo          0.1;

maxDeltaT      0.01;

functions
{
    probes
    {
        
        type            probes;

        // Name of the directory for probe data
        name            probes;

        // Write at same frequency as fields
        outputControl   timeStep;
        outputInterval  50;

        // Fields to be probed
        fields
        (
            U
        );

        probeLocations
        (
            (2e-5 2e-5 5e-6)    
        );
    }

}

// ************************************************************************* //
