/*--------------------------------*- C++ -*----------------------------------*\
| =========                 |                                                 |
| \\      /  F ield         | foam-extend: Open Source CFD                    |
|  \\    /   O peration     | Version:     4.0                                |
|   \\  /    A nd           | Web:         http://www.extend-project.de       |
|    \\/     M anipulation  |                                                 |
\*---------------------------------------------------------------------------*/
FoamFile
{
    version     2.0;
    format      ascii;
    class       dictionary;
    object      sampleDict;
}
// * * * * * * * * * * * * * * * * * * * * * * * * * * * * * * * * * * * * //

setFormat raw;

surfaceFormat raw;

formatOptions
{
    ensight
    {
        format  ascii;
    }
}

interpolationScheme cellPointFace;

fields
(
   U  
   psi
   cAnion
   cCation  
);

sets
(
    line45deg
    {
        type        face;
        axis        xyz;

        start       ( 0 0 0.5e-5 );
        end         ( 10e-5 10e-5 0.5e-5 );       
    } 
);

surfaces
(

);

