/*--------------------------------*- C++ -*----------------------------------*\
  =========                 |
| \\      /  F ield         | OpenFOAM: The Open Source CFD Toolbox           |
|  \\    /   O peration     | Version:  7.0                                   |
|   \\  /    A nd           | Website:  https://openfoam.org                  |
|    \\/     M anipulation  |                                                 |
\*---------------------------------------------------------------------------*/
FoamFile
{
    version     2.0;
    format      ascii;
    class       volVectorField;
    object      U;
}
// * * * * * * * * * * * * * * * * * * * * * * * * * * * * * * * * * * * * * //

dimensions      [0 1 -1 0 0 0 0];

internalField   uniform (0 0 0);

boundaryField
{
    inlet
    {
	type            poiseuilleVelocity;
	geometryType    Circular;
	uMean           0.4;
	R               1.5e-3;
	center          (0 0 0);
	
	value           uniform (0 0 0);
    }  
    walls
    {
	type            fixedValue;
	value           uniform (0 0 0);       
    }
    outlet
    {
	type            zeroGradient;     
    }
    wFront
    {
	type            wedge;     
    }
    wBack
    {
	type            wedge;     
    }
    axis
    {
	type            empty;     
    }
}

// ************************************************************************* //
