/*--------------------------------*- C++ -*----------------------------------*\
| =========                 |                                                 |
| \\      /  F ield         | foam-extend: Open Source CFD                    |
|  \\    /   O peration     | Version:     4.0                                |
|   \\  /    A nd           | Web:         http://www.extend-project.de       |
|    \\/     M anipulation  |                                                 |
\*---------------------------------------------------------------------------*/
FoamFile
{
    version     2.0;
    format      ascii;
    class       dictionary;
    object      electricProperties;
}
// * * * * * * * * * * * * * * * * * * * * * * * * * * * * * * * * * * * * * //
 
parameters
{
        type             NernstPlanck;      
  
        relPerm          relPerm [ 0 0 0 0 0 0 0 ] 80;  
        T                T [ 0 0 0 1 0 0 0 ] 300;
        psiContrib       true;
        
        species
        (        
           cCation
           {        
              z                 z [ 0 0 0 0 0 0 0 ] 1;      
              D                 D [ 0 2 -1 0 0 0 0 ] 1e-9;          
           }
           
           cAnion
           {  
              z                 z [ 0 0 0 0 0 0 0 ] -1;         
              D                 D [ 0 2 -1 0 0 0 0 ] 1e-9;          
           }               
        ); 
}

// ************************************************************************* //
