/*--------------------------------*- C++ -*----------------------------------*\
| =========                 |                                                 |
| \\      /  F ield         | OpenFOAM: The Open Source CFD Toolbox           |
|  \\    /   O peration     | Version:  1.7.1                                 |
|   \\  /    A nd           | Web:      www.OpenFOAM.com                      |
|    \\/     M anipulation  |                                                 |
\*---------------------------------------------------------------------------*/
FoamFile
{
    version     2.0;
    format      ascii;
    class       volScalarField;
    location    "0";
    object      alpha1;
}
// * * * * * * * * * * * * * * * * * * * * * * * * * * * * * * * * * * * * * //

dimensions      [0 0 0 0 0 0 0];



internalField   uniform 0;


boundaryField
{
    atmosphere
    {
       type            zeroGradient;
    }
    plate
    {
       type            zeroGradient;
      
    }
     wFront
    {
	type            wedge;     
    }
    wBack
    {
	type            wedge;     
    }
    axis
    {
	type            empty;     
    }
}

// ************************************************************************* //
