/*--------------------------------*- C++ -*----------------------------------*\
| =========                 |                                                 |
| \\      /  F ield         | OpenFOAM Extend Project: Open Source CFD        |
|  \\    /   O peration     | Version:  1.6-ext                               |
|   \\  /    A nd           | Web:      www.extend-project.de                 |
|    \\/     M anipulation  |                                                 |
\*---------------------------------------------------------------------------*/
FoamFile
{
    version     2.0;
    format      ascii;
    class       volSymmTensorField;
    object      tau;
}
// * * * * * * * * * * * * * * * * * * * * * * * * * * * * * * * * * * * * * //

dimensions      [1 -1 -2 0 0 0 0];

internalField   uniform (0 0 0 0 0 0);

boundaryField
{
    atmosphere
    {
       type            fixedValue;
       value           uniform (0 0 0 0 0 0);
    }
    plate
    {
       type            extST;
       value           uniform (0 0 0 0 0 0);
    }
     wFront
    {
	type            wedge;     
    }
    wBack
    {
	type            wedge;     
    }
    axis
    {
	type            empty;     
    }
   
}

// ************************************************************************* //
