/*--------------------------------*- C++ -*----------------------------------*\
| =========                 |                                                 |
| \\      /  F ield         | OpenFOAM: The Open Source CFD Toolbox           |
|  \\    /   O peration     | Version:  1.7.0                                 |
|   \\  /    A nd           | Web:      www.OpenFOAM.com                      |
|    \\/     M anipulation  |                                                 |
\*---------------------------------------------------------------------------*/
FoamFile
{
    version     2.0;
    format      ascii;
    class       volVectorField;
    location    "0";
    object      U;
}
// * * * * * * * * * * * * * * * * * * * * * * * * * * * * * * * * * * * * * //


dimensions      [0 1 -1 0 0 0 0];

internalField   uniform (0 0 0);



boundaryField
{
    atmosphere
    {
       type            zeroGradient;
    }
    plate
    {
       type            fixedValue;
       value           uniform (0 0 0);
    }
    wFront
    {
	type            wedge;     
    }
    wBack
    {
	type            wedge;     
    }
    axis
    {
	type            empty;     
    }
}


// ************************************************************************* //
