/*--------------------------------*- C++ -*----------------------------------*\
| =========                 |                                                 |
| \\      /  F ield         | OpenFOAM: The Open Source CFD Toolbox           |
|  \\    /   O peration     | Website:  https://openfoam.org                  |
|   \\  /    A nd           | Version:  9                                     |
|    \\/     M anipulation  |                                                 |
\*---------------------------------------------------------------------------*/
FoamFile
{
    format      ascii;
    class       dictionary;
    object      controlDict;
}
// * * * * * * * * * * * * * * * * * * * * * * * * * * * * * * * * * * * * * //

application     rheoHeatFoam;

startFrom       startTime;

startTime       0;

stopAt          endTime;

endTime         2;

deltaT          1e-4;

writeControl    timeStep;

writeInterval   2500;

purgeWrite      0;

writeFormat     ascii;

writePrecision  12;

writeCompression compressed;

timeFormat      general;

timePrecision   10;

graphFormat     raw;

runTimeModifiable yes;

adjustTimeStep off;

maxCo          0.1;

maxDeltaT      0.01;

functions
{

 // Monitor for convergence

    probes
    {
        // Where to load it from
        functionObjectLibs ( "libsampling.so" );

        type            probes;

        // Name of the directory for probe data
        name            probes;

        // Write at same frequency as fields
        writeControl   timeStep;
        writeInterval  25;

        // Fields to be probed
        fields
        (
            U
            T
            tau
        );

        probeLocations
        (
             (9.9 0 0.5e-3)
        );
    }

}

// ************************************************************************* //
