/*--------------------------------*- C++ -*----------------------------------*\
| =========                 |                                                 |
| \\      /  F ield         | OpenFOAM: The Open Source CFD Toolbox           |
|  \\    /   O peration     | Website:  https://openfoam.org                  |
|   \\  /    A nd           | Version:  9                                     |
|    \\/     M anipulation  |                                                 |
\*---------------------------------------------------------------------------*/
FoamFile
{
    format      ascii;
    class       volScalarField;
    object      p;
}
// * * * * * * * * * * * * * * * * * * * * * * * * * * * * * * * * * * * * * //

dimensions      [0 2 -2 0 0 0 0];

internalField   uniform 0;

boundaryField
{
    inlet
    {
	type            fixedValue;
	value           uniform -0.00028368816;  
    }
   
    walls
    {
	type            zeroGradient;       
    }
    
    symmetry
    {
	type            symmetryPlane;       
    }

    outlet
    {
	type            fixedValue;
	value           uniform 0;      
    }

    frontAndBack
    {
	type            empty;     
    }
}

// ************************************************************************* //
