/*--------------------------------*- C++ -*----------------------------------*\
| =========                 |                                                 |
| \\      /  F ield         | OpenFOAM: The Open Source CFD Toolbox           |
|  \\    /   O peration     | Website:  https://openfoam.org                  |
|   \\  /    A nd           | Version:  9                                     |
|    \\/     M anipulation  |                                                 |
\*---------------------------------------------------------------------------*/
FoamFile
{
    format      ascii;
    class       dictionary;
    object      constitutiveProperties;
}
// * * * * * * * * * * * * * * * * * * * * * * * * * * * * * * * * * * * * * //

parameters
{
                
                type             PTTLog;

                rho              rho [1 -3 0 0 0 0 0] 1;
                etaS             etaS [1 -1 -1 0 0 0 0] 0.1111111;
                etaP             etaP [1 -1 -1 0 0 0 0] 0.8888889;                 
                lambda           lambda [0 0 1 0 0 0 0] 0.6; 
                epsilon          epsilon [0 0 0 0 0 0 0] 0.02;  
                zeta             zeta [0 0 0 0 0 0 0] 0.; // Simplified PTT -> zeta = 0 
                
                destructionFunctionType  linear;

                stabilization    coupling;                     
}

passiveScalarProperties
{
                solvePassiveScalar   on;
                D                    D [ 0 2 -1 0 0 0 0 ] 0.002; 
}

// ************************************************************************* //
