/*--------------------------------*- C++ -*----------------------------------*\
| =========                 |                                                 |
| \\      /  F ield         | foam-extend: Open Source CFD                    |
|  \\    /   O peration     | Version:     3.2                                |
|   \\  /    A nd           | Web:         http://www.extend-project.de       |
|    \\/     M anipulation  |                                                 |
\*---------------------------------------------------------------------------*/
FoamFile
{
    version     2.0;
    format      ascii;
    class       dictionary;
    object      constitutiveProperties;
}
// * * * * * * * * * * * * * * * * * * * * * * * * * * * * * * * * * * * * * //

parameters
{                
                type            powerLaw;

                rho             rho [1 -3 0 0 0 0 0] 1050;
  
                etaMin          etaMin [1 -1 -1 0 0 0 0] .001; 
    		etaMax          etaMax [1 -1 -1 0 0 0 0] 1; 
   		k               k [1 -1 -1 0 0 0 0] 0.42; 
   		n               n [ 0 0 0 0 0 0 0 ] 0.61;               
}

passiveScalarProperties
{
                solvePassiveScalar   no;
                D                    D [ 0 2 -1 0 0 0 0 ] 1e-9; 
}

// ************************************************************************* //
