/*--------------------------------*- C++ -*----------------------------------*\
  =========                 |
  \\      /  F ield         | OpenFOAM: The Open Source CFD Toolbox
   \\    /   O peration     | Website:  https://openfoam.org
    \\  /    A nd           | Version:  6
     \\/     M anipulation  |
\*---------------------------------------------------------------------------*/
FoamFile
{
    version     2.0;
    format      ascii;
    class       dictionary;
    location    "system";
    object      fvSolution;
}
// * * * * * * * * * * * * * * * * * * * * * * * * * * * * * * * * * * * * * //

coupledSolvers
{
  T
  {
    solveCoupledT false;
     
    saveSystem true;
    robustSumCheck  true;
    updatePrecondFrequency -1;  
    updateMatrixCoeffs true;  
  }

}


PIMPLE
{
  nOuterCorrectors    1;
}

// ************************************************************************* //
