/*--------------------------------*- C++ -*----------------------------------*\
| =========                 |                                                 |
| \\      /  F ield         | foam-extend: Open Source CFD                    |
|  \\    /   O peration     | Version:     4.0                                |
|   \\  /    A nd           | Web:         http://www.foam-extend.org         |
|    \\/     M anipulation  |                                                 |
\*---------------------------------------------------------------------------*/
FoamFile
{
    version     2.0;
    format      ascii;
    class       volVectorField;
    location    "0";
    object      U;
}
// * * * * * * * * * * * * * * * * * * * * * * * * * * * * * * * * * * * * * //

dimensions          [0 1 -1 0 0 0 0];

internalField       uniform (0.1 0 0);

boundaryField
{   
    inlet
    {
        type fixedValue;
        value uniform (0.1 0 0);
    }
    
    outlet
    {  
        type            rollVelocity;
        
        hT              10;
        uStart          0.1;
        uEnd            4;
        
        // Dummy
        value           uniform ($uStart 0 0);  
    }

    "(freeSurface.*)"
    {
        type zeroGradient;
    }   
 
    frontAndBack
    {
        type empty;
    }
    
    symm
    {
        type symmetryPlane;
    }
}

// * * * * * * * * * * * * * * * * * * * * * * * * * * * * * * * * * * * * * //
