/*--------------------------------*- C++ -*----------------------------------*\
| =========                 |                                                 |
| \\      /  F ield         | OpenFOAM: The Open Source CFD Toolbox           |
|  \\    /   O peration     | Website:  https://openfoam.org                  |
|   \\  /    A nd           | Version:  9                                     |
|    \\/     M anipulation  |                                                 |
\*---------------------------------------------------------------------------*/
FoamFile
{
    format      ascii;
    class       volScalarField;
    object      psi;
}
// * * * * * * * * * * * * * * * * * * * * * * * * * * * * * * * * * * * * * //

dimensions      [1 2 -3 0 0 -1 0];

internalField   uniform 0;

boundaryField
{

    inlet_top
    {
       type            zeroGradient;
    }
    
    inlet_down
    {
      type            zeroGradient;
    }

    walls
    {
        type            fixedValue;
        value           uniform -0.14;
    }

    outlet_left
    {
         type            zeroGradient;
    }

    outlet_right
    {
        type            zeroGradient;
    }
    
    "(top|base)"
    {
        type            empty;
    }  
    
}

// ************************************************************************* //
