/*--------------------------------*- C++ -*----------------------------------*\
  =========                 |
  \\      /  F ield         | OpenFOAM: The Open Source CFD Toolbox
   \\    /   O peration     | Website:  https://openfoam.org
    \\  /    A nd           | Version:  6
     \\/     M anipulation  |
\*---------------------------------------------------------------------------*/
FoamFile
{
    version     2.0;
    format      ascii;
    class       volScalarField;
    location    "0/heater";
    object      T;
}
// * * * * * * * * * * * * * * * * * * * * * * * * * * * * * * * * * * * * * //

dimensions      [ 0 0 0 1 0 0 0 ];

internalField   uniform 10;

boundaryField
{
    c_left 
    {
        type            zeroGradient;
    }
   
    c_right  
    {
        type            zeroGradient;
    }
   
    c_up  
    {
        type            zeroGradient;
    }
    
    "(cyl.*)"
    {
        type            fixedValue;
        value           uniform 10;
    }
    
    "(bottom|top)"  
    {
        type             empty;
    }
        
    inter.calibrator
    {   
        type                    coupledT;
        nbrFieldName            "T";
        isContactResistance     false;
        hres                    1;
        value                   uniform 10;
    }
}

// ************************************************************************* //
