/*--------------------------------*- C++ -*----------------------------------*\
| =========                 |                                                 |
| \\      /  F ield         | OpenFOAM: The Open Source CFD Toolbox           |
|  \\    /   O peration     | Version:  2.2.2                                 |
|   \\  /    A nd           | Web:      www.OpenFOAM.org                      |
|    \\/     M anipulation  |                                                 |
\*---------------------------------------------------------------------------*/
FoamFile
{
    version     2.0;
    format      ascii;
    class       polyBoundaryMesh;
    location    "constant/polyMesh";
    object      boundary;
}
// * * * * * * * * * * * * * * * * * * * * * * * * * * * * * * * * * * * * * //

4
(
    inlet
    {
        type            patch;
        nFaces          60;
        startFace       5890;
    }
    outlet
    {
        type            patch;
        nFaces          60;
        startFace       5950;
    }
    walls
    {
        type            wall;
        nFaces          100;
        startFace       6010;
    }
    frontAndBack
    {
        type            empty;
        inGroups        1(empty);
        nFaces          6000;
        startFace       6110;
    }
)

// ************************************************************************* //
