/*--------------------------------*- C++ -*----------------------------------*\
| =========                 |                                                 |
| \\      /  F ield         | OpenFOAM: The Open Source CFD Toolbox           |
|  \\    /   O peration     | Version:  2.2.2                                 |
|   \\  /    A nd           | Web:      www.OpenFOAM.org                      |
|    \\/     M anipulation  |                                                 |
\*---------------------------------------------------------------------------*/
FoamFile
{
    version     2.0;
    format      ascii;
    class       dictionary;
    object      fvSolution;
}
// * * * * * * * * * * * * * * * * * * * * * * * * * * * * * * * * * * * * * //

solvers
{
    "(p|psi|U)"
    {
        solver           PCG;
        preconditioner   DIC;
        tolerance        1e-10;
        relTol           0.;
        minIter          0;
        maxIter          800;
        
    }

    "(ci)"
    {

        solver           PBiCG;
        preconditioner
        {
            preconditioner DILU;
        }

        tolerance         1e-10;
        relTol            0.;
        minIter           0;
        maxIter           1000;
    }
 
}

electricControls
{
  nIterPNP         2;
  
  phiEEqn
   {
      residuals 1e-7;
      maxIter      1;
   }

  psiEqn
   {
      residuals 1e-7;
      maxIter      1;
   }
   
   ciEqn
   {
      residuals 1e-7;
      maxIter      1;
   }
}

PostProcessing
{
 
functions
 (
 
  JMonitor
   {
     funcType          calcJpatch;
     ListOfPatches
      (
        "membrane"
        "reservoir"
      );                        // List of patches for where to compute J
     enabled           true;
     evaluateInterval  10000;   // Time-steps between outputs
   }
   
 );
 
}

SIMPLE
{
    solveFluid      false;
     
    nInIter         1;
    nNonOrthogonalCorrectors 0;
    pRefCell        0;
    pRefValue       0;

    residualControl
    {
       
    }
}

relaxationFactors
{
    fields
     {        
	p 	1;
     }

    equations
     { 
       U 	1;
       ci      .1; 
     }
}

// ************************************************************************* //
