/*--------------------------------*- C++ -*----------------------------------*\
| =========                 |                                                 |
| \\      /  F ield         | OpenFOAM: The Open Source CFD Toolbox           |
|  \\    /   O peration     | Website:  https://openfoam.org                  |
|   \\  /    A nd           | Version:  9                                     |
|    \\/     M anipulation  |                                                 |
\*---------------------------------------------------------------------------*/
FoamFile
{
    format      ascii;
    class       dictionary;
    object      sampleDict;
}
// * * * * * * * * * * * * * * * * * * * * * * * * * * * * * * * * * * * * //

type sets;

libs ("libsampling.so");
      
setFormat raw;

surfaceFormat raw;

formatOptions
{
    ensight
    {
        format  ascii;
    }
}

interpolationScheme cellPointFace;

fields
(
   U  
);

sets
(

    lineY
    {
        type        lineFace;
        axis        y;

        start       ( 7.5e-6 -1e-6 5e-6 );
        end         ( 7.5e-6 100e-6 5e-6 );
       
    }
 
);

surfaces
(

);

