/*--------------------------------*- C++ -*----------------------------------*\
  =========                 |
| \\      /  F ield         | OpenFOAM: The Open Source CFD Toolbox           |
|  \\    /   O peration     | Version:  6.0                                   |
|   \\  /    A nd           | Website:  https://openfoam.org                  |
|    \\/     M anipulation  |                                                 |
\*---------------------------------------------------------------------------*/
FoamFile
{
    version     2.0;
    format      ascii;
    class       dictionary;
    object      controlDict;
}
// * * * * * * * * * * * * * * * * * * * * * * * * * * * * * * * * * * * * * //

application     rheoTestFoam;

startFrom       startTime;

startTime       0;

stopAt          endTime;

endTime         50;

deltaT          .001;

writeControl    timeStep;

writeInterval   100;

purgeWrite      0;

writeFormat     ascii;

writePrecision  7;

writeCompression compressed;

timeFormat      general;

timePrecision   10;

graphFormat     raw;

runTimeModifiable yes;

adjustTimeStep off;

maxCo          0.01;

maxDeltaT      0.001;

// ************************************************************************* //
