/*--------------------------------*- C++ -*----------------------------------*\
  =========                 |
| \\      /  F ield         | OpenFOAM: The Open Source CFD Toolbox           |
|  \\    /   O peration     | Version:  7.0                                   |
|   \\  /    A nd           | Website:  https://openfoam.org                  |
|    \\/     M anipulation  |                                                 |
\*---------------------------------------------------------------------------*/
FoamFile
{
    version     2.0;
    format      ascii;
    class       dictionary;
    object      particleProperties;
}
// * * * * * * * * * * * * * * * * * * * * * * * * * * * * * * * * * * * * * //
 
groups
(
    G1
    {
        nMolecules   500;
        
        // Physical properties
        D           .25727e-12;
        a           .101e-6;  
        Nks         40;             
        nuEV        3.4e-21;    
        Ls          5.35714e-6;        
        
        spatialDistibutionCoeffs
         {
            p0              (-400e-6 -90e-6 0); 
            p1              (-400e-6 90e-6 0); 
            
            branches
            (
                  (0 0 29) ( 0.1 0. 0. ) (false true)
            );
            
         }       
    }     
    
    G2
    {
        nMolecules   500;
        
        // Physical properties
        D           .25727e-12;
        a           .101e-6;  
        Nks         40;             
        nuEV        3.4e-21;    
        Ls          5.35714e-6;        
        
        spatialDistibutionCoeffs
         {
            p0              (-400e-6 -90e-6 0); 
            p1              (-400e-6 90e-6 0); 
            
            branches
            (
                  (0 0 29) ( 0.1 0. 0. ) (false true)
            );
            
         }       
    }   
);
 
// ************************************************************************* //
