/*--------------------------------*- C++ -*----------------------------------*\
  =========                 |
  \\      /  F ield         | OpenFOAM: The Open Source CFD Toolbox
   \\    /   O peration     | Website:  https://openfoam.org
    \\  /    A nd           | Version:  6
     \\/     M anipulation  |
\*---------------------------------------------------------------------------*/
FoamFile
{
    version     2.0;
    format      ascii;
    class       volScalarField;
    location    "0/heater";
    object      T;
}
// * * * * * * * * * * * * * * * * * * * * * * * * * * * * * * * * * * * * * //

dimensions      [ 0 0 0 1 0 0 0 ];

internalField   uniform 180;

boundaryField
{
    #includeEtc "caseDicts/setConstraintTypes"

    left1
    {
        type            fixedValue;
        value           uniform 180;
    }
    right1
    {
        type            fixedValue;
        value           uniform 180;
    }
    top1
    {
        type            fixedValue;
        value           uniform 180;
    }   
    inter1
    {   
        type                    coupledT;
        nbrFieldName            "T";
        isContactResistance     true;
        hres                    500;
        value                   uniform 180;
    }
}

// ************************************************************************* //
