/*--------------------------------*- C++ -*----------------------------------*\
| =========                 |                                                 |
| \\      /  F ield         | OpenFOAM: The Open Source CFD Toolbox           |
|  \\    /   O peration     | Website:  https://openfoam.org                  |
|   \\  /    A nd           | Version:  9                                     |
|    \\/     M anipulation  |                                                 |
\*---------------------------------------------------------------------------*/
FoamFile
{
    format      ascii;
    class       dictionary;
    object      fvSchemes;
}
// * * * * * * * * * * * * * * * * * * * * * * * * * * * * * * * * * * * * * //

ddtSchemes
{
    default         Euler;
}

gradSchemes
{
    default         Gauss linear;
}

divSchemes
{
    default         none;
    div(tau)        Gauss linear;
    div(phi,U)      GaussDefCmpw none;
    div(phi,nA)     GaussDefCmpw cubista;
    div(phi,nB)     GaussDefCmpw cubista;
    div(phi,A)      GaussDefCmpw cubista;
    div(phi,B)      GaussDefCmpw cubista;
    divLinear       Gauss linear;
}

laplacianSchemes
{
    default                       Gauss linear corrected;
        
}

interpolationSchemes
{
    default           linear;
      
}

snGradSchemes
{
    default         corrected;
}

fluxRequired
{
    default         no;
    p;
    pcorr;
}

// ************************************************************************* //
