/*--------------------------------*- C++ -*----------------------------------*\
| =========                 |                                                 |
| \\      /  F ield         | foam-extend: Open Source CFD                    |
|  \\    /   O peration     | Version:     4.0                                |
|   \\  /    A nd           | Web:         http://www.extend-project.de       |
|    \\/     M anipulation  |                                                 |
\*---------------------------------------------------------------------------*/
FoamFile
{
    version     2.0;
    format      ascii;
    class       volScalarField;
    object      C;
}
// * * * * * * * * * * * * * * * * * * * * * * * * * * * * * * * * * * * * * //

dimensions      [0 0 0 0 0 0 0];

internalField   uniform 0;

boundaryField
{
    inlet_top
    {
        type            inletOutlet;
        inletValue      uniform 0;
        value           uniform 0;
    }
    
    inlet_down
    {
        type            inletOutlet;
        inletValue      uniform 0;
        value           uniform 0;
    }

    walls
    {
        type            zeroGradient;
    }

    inlet_left
    {
        type            inletOutlet;
        inletValue      uniform 1;
        value           uniform 1;
    }

    outlet_right
    {
        type            zeroGradient;
    }
    
    "(top|base)"
    {
        type            empty;
    }
}

// ************************************************************************* //
