/*--------------------------------*- C++ -*----------------------------------*\
| =========                 |                                                 |
| \\      /  F ield         | OpenFOAM: The Open Source CFD Toolbox           |
|  \\    /   O peration     | Website:  https://openfoam.org                  |
|   \\  /    A nd           | Version:  9                                     |
|    \\/     M anipulation  |                                                 |
\*---------------------------------------------------------------------------*/
FoamFile
{
    format      ascii;
    class       dictionary;
    object      fvSolution;
}
// * * * * * * * * * * * * * * * * * * * * * * * * * * * * * * * * * * * * * //

solvers
{
    "(p|U|phiE|psi)"
    {
        solver           PCG;
        preconditioner   DIC;
        tolerance        1e-10;
        relTol           0.;
        minIter          0;
        maxIter          800;
        
    }

    "(theta|tau|C)"
    {

        solver           PBiCG;
        preconditioner
        {
            preconditioner DILU;
        }

        tolerance         1e-10;
        relTol            0.;
        minIter           0;
        maxIter           1000;
    }
 
}

electricControls
{
  phiEEqn
   {
      residuals 1e-7;
      maxIter      1;
   }

  psiEqn
   {
      residuals 1e-7;
      maxIter      1;
   }
}
 

SIMPLE
{
    nInIter         1;
    nNonOrthogonalCorrectors 0;
    pRefCell        0;
    pRefValue       0;

    residualControl
    {
       
    }
}

relaxationFactors
{
    fields
     {        
	p 	1;
     }

    equations
     { 
       U 	1;
       tau	1;
       theta 	1;
       C	1;
     }
}

// ************************************************************************* //
