/*--------------------------------*- C++ -*----------------------------------*\
| =========                 |                                                 |
| \\      /  F ield         | foam-extend: Open Source CFD                    |
|  \\    /   O peration     | Version:     4.0                                |
|   \\  /    A nd           | Web:         http://www.extend-project.de       |
|    \\/     M anipulation  |                                                 |
\*---------------------------------------------------------------------------*/
FoamFile
{
    version     2.0;
    format      ascii;
    class       dictionary;
    object      blockMeshDict;
}
// * * * * * * * * * * * * * * * * * * * * * * * * * * * * * * * * * * * * * //

convertToMeters 1e-06;

vertices
(
  (0 0 0)
  (15 0 0)
  (15 15 0)
  (0 15 0)
  
  (0 0 10)
  (15 0 10)
  (15 15 10)
  (0 15 10)
);

blocks
(
    hex (0 1 2 3 4 5 6 7) (1 300 1) simpleGrading (1 .3 1)     
);

edges
(
);

boundary
(
     inletOutlet
     {
      type cyclic;
      faces
      (
            (0 3 7 4) 
            (1 2 6 5)           
      );
    }
    
    walls
    {
        type wall;
        faces
        (
            (3 2 6 7)      
        );
    }
    
    symmetry
    {
        type symmetryPlane;
        faces
        (
            (0 1 5 4)     
        );
    }
    
    frontAndBack
    {
        type empty;
        faces
        (
            (0 1 2 3)
            (4 5 6 7)
        );
    }    
);

mergePatchPairs
(
);

// ************************************************************************* //
